
     RDKit          3D

 57 60  0  0  0  0  0  0  0  0999 V2000
    2.0875    3.2649    1.3639 C   0  0  0  0  0  0  0  0  0  0  0  0
    2.3308    2.1794    0.3148 C   0  0  2  0  0  0  0  0  0  0  0  0
    1.3551    1.1156    0.4593 N   0  0  0  0  0  0  0  0  0  0  0  0
    0.6450    0.6135   -0.6059 C   0  0  0  0  0  0  0  0  0  0  0  0
    0.6418    1.1467   -1.7112 O   0  0  0  0  0  0  0  0  0  0  0  0
   -0.1428   -0.5596   -0.2952 C   0  0  0  0  0  0  0  0  0  0  0  0
   -1.4535   -0.7997   -0.6732 C   0  0  0  0  0  0  0  0  0  0  0  0
   -2.1702    0.0511   -1.4537 N   0  0  0  0  0  0  0  0  0  0  0  0
   -3.4977    0.5142   -1.3095 C   0  0  0  0  0  0  0  0  0  0  0  0
   -4.2551    0.3236   -0.1488 C   0  0  0  0  0  0  0  0  0  0  0  0
   -5.5805    0.7662   -0.0717 C   0  0  0  0  0  0  0  0  0  0  0  0
   -6.1866    1.3993   -1.1654 C   0  0  0  0  0  0  0  0  0  0  0  0
   -5.4334    1.5912   -2.3312 C   0  0  0  0  0  0  0  0  0  0  0  0
   -4.1089    1.1465   -2.4014 C   0  0  0  0  0  0  0  0  0  0  0  0
   -7.6075    1.8970   -1.0776 C   0  0  0  0  0  0  0  0  0  0  0  0
   -8.3730    1.1851   -0.2037 F   0  0  0  0  0  0  0  0  0  0  0  0
   -8.2661    1.8487   -2.2695 F   0  0  0  0  0  0  0  0  0  0  0  0
   -7.6783    3.1927   -0.6643 F   0  0  0  0  0  0  0  0  0  0  0  0
   -1.8552   -2.0637   -0.1507 C   0  0  0  0  0  0  0  0  0  0  0  0
   -0.7650   -2.5748    0.5600 C   0  0  0  0  0  0  0  0  0  0  0  0
   -0.8285   -3.8082    1.2327 C   0  0  0  0  0  0  0  0  0  0  0  0
   -2.0148   -4.5439    1.1581 C   0  0  0  0  0  0  0  0  0  0  0  0
   -3.0995   -4.0755    0.4259 C   0  0  0  0  0  0  0  0  0  0  0  0
   -3.0287   -2.8456   -0.2353 C   0  0  0  0  0  0  0  0  0  0  0  0
    0.2773   -1.6797    0.3989 N   0  0  0  0  0  0  0  0  0  0  0  0
    1.6440   -1.9474    0.8008 C   0  0  0  0  0  0  0  0  0  0  0  0
    3.7215    1.5657    0.3537 C   0  0  0  0  0  0  0  0  0  0  0  0
    4.3175    1.1622   -0.8553 C   0  0  0  0  0  0  0  0  0  0  0  0
    5.5780    0.5600   -0.8692 C   0  0  0  0  0  0  0  0  0  0  0  0
    6.2629    0.3385    0.3294 C   0  0  0  0  0  0  0  0  0  0  0  0
    5.6742    0.7205    1.5408 C   0  0  0  0  0  0  0  0  0  0  0  0
    4.4114    1.3239    1.5521 C   0  0  0  0  0  0  0  0  0  0  0  0
    7.5965   -0.3070    0.2691 C   0  0  0  0  0  0  0  0  0  0  0  0
    8.1526   -0.4697    1.4828 O   0  0  0  0  0  0  0  0  0  0  0  0
    8.1676   -0.6738   -0.7411 O   0  0  0  0  0  0  0  0  0  0  0  0
    1.1057    3.7279    1.2095 H   0  0  0  0  0  0  0  0  0  0  0  0
    2.0903    2.8647    2.3835 H   0  0  0  0  0  0  0  0  0  0  0  0
    2.8474    4.0519    1.3016 H   0  0  0  0  0  0  0  0  0  0  0  0
    2.2003    2.6597   -0.6630 H   0  0  0  0  0  0  0  0  0  0  0  0
    1.2516    0.6814    1.3633 H   0  0  0  0  0  0  0  0  0  0  0  0
   -1.6262    0.7179   -2.0078 H   0  0  0  0  0  0  0  0  0  0  0  0
   -3.8149   -0.1541    0.7227 H   0  0  0  0  0  0  0  0  0  0  0  0
   -6.1369    0.6103    0.8517 H   0  0  0  0  0  0  0  0  0  0  0  0
   -5.8755    2.0822   -3.1973 H   0  0  0  0  0  0  0  0  0  0  0  0
   -3.5537    1.2885   -3.3267 H   0  0  0  0  0  0  0  0  0  0  0  0
    0.0172   -4.1983    1.7903 H   0  0  0  0  0  0  0  0  0  0  0  0
   -2.0833   -5.5036    1.6650 H   0  0  0  0  0  0  0  0  0  0  0  0
   -4.0085   -4.6688    0.3597 H   0  0  0  0  0  0  0  0  0  0  0  0
   -3.8756   -2.4946   -0.8191 H   0  0  0  0  0  0  0  0  0  0  0  0
    2.3324   -1.4966    0.0809 H   0  0  0  0  0  0  0  0  0  0  0  0
    1.8210   -3.0263    0.8147 H   0  0  0  0  0  0  0  0  0  0  0  0
    1.7932   -1.5289    1.7990 H   0  0  0  0  0  0  0  0  0  0  0  0
    3.7939    1.3125   -1.8003 H   0  0  0  0  0  0  0  0  0  0  0  0
    6.0193    0.2628   -1.8196 H   0  0  0  0  0  0  0  0  0  0  0  0
    6.1904    0.5521    2.4838 H   0  0  0  0  0  0  0  0  0  0  0  0
    3.9807    1.5992    2.5116 H   0  0  0  0  0  0  0  0  0  0  0  0
    9.0129   -0.8977    1.2882 H   0  0  0  0  0  0  0  0  0  0  0  0
  1  2  1  0
  2  3  1  0
  3  4  1  0
  4  5  2  0
  4  6  1  0
  6  7  2  0
  7  8  1  0
  8  9  1  0
  9 10  2  0
 10 11  1  0
 11 12  2  0
 12 13  1  0
 13 14  2  0
 12 15  1  0
 15 16  1  0
 15 17  1  0
 15 18  1  0
  7 19  1  0
 19 20  1  0
 20 21  2  0
 21 22  1  0
 22 23  2  0
 23 24  1  0
 20 25  1  0
 25 26  1  0
  2 27  1  0
 27 28  2  0
 28 29  1  0
 29 30  2  0
 30 31  1  0
 31 32  2  0
 30 33  1  0
 33 34  1  0
 33 35  2  0
 25  6  1  0
 32 27  1  0
 14  9  1  0
 24 19  2  0
  1 36  1  0
  1 37  1  0
  1 38  1  0
  2 39  1  6
  3 40  1  0
  8 41  1  0
 10 42  1  0
 11 43  1  0
 13 44  1  0
 14 45  1  0
 21 46  1  0
 22 47  1  0
 23 48  1  0
 24 49  1  0
 26 50  1  0
 26 51  1  0
 26 52  1  0
 28 53  1  0
 29 54  1  0
 31 55  1  0
 32 56  1  0
 34 57  1  0
M  END
$$$$
