
     RDKit          3D

 57 60  0  0  0  0  0  0  0  0999 V2000
    2.5349    1.7639   -3.2237 C   0  0  0  0  0  0  0  0  0  0  0  0
    2.2004    1.6280   -1.7344 C   0  0  1  0  0  0  0  0  0  0  0  0
    1.3786    0.4583   -1.4691 N   0  0  0  0  0  0  0  0  0  0  0  0
    0.0458    0.4246   -1.8168 C   0  0  0  0  0  0  0  0  0  0  0  0
   -0.4982    1.3405   -2.4276 O   0  0  0  0  0  0  0  0  0  0  0  0
   -0.6774   -0.7312   -1.3259 C   0  0  0  0  0  0  0  0  0  0  0  0
   -1.9761   -0.7407   -0.8417 C   0  0  0  0  0  0  0  0  0  0  0  0
   -2.7674    0.3647   -0.8156 N   0  0  0  0  0  0  0  0  0  0  0  0
   -3.6051    0.8569    0.2109 C   0  0  0  0  0  0  0  0  0  0  0  0
   -4.5499    1.8413   -0.1091 C   0  0  0  0  0  0  0  0  0  0  0  0
   -5.4297    2.3373    0.8549 C   0  0  0  0  0  0  0  0  0  0  0  0
   -5.3832    1.8472    2.1581 C   0  0  0  0  0  0  0  0  0  0  0  0
   -4.4572    0.8550    2.5056 C   0  0  0  0  0  0  0  0  0  0  0  0
   -3.5765    0.3690    1.5224 C   0  0  0  0  0  0  0  0  0  0  0  0
   -4.3820    0.3096    3.9085 C   0  0  0  0  0  0  0  0  0  0  0  0
   -3.1976    0.5968    4.5173 F   0  0  0  0  0  0  0  0  0  0  0  0
   -4.5075   -1.0461    3.9537 F   0  0  0  0  0  0  0  0  0  0  0  0
   -5.3505    0.7978    4.7347 F   0  0  0  0  0  0  0  0  0  0  0  0
   -2.3078   -2.0680   -0.4424 C   0  0  0  0  0  0  0  0  0  0  0  0
   -1.1771   -2.8554   -0.6752 C   0  0  0  0  0  0  0  0  0  0  0  0
   -1.1478   -4.2253   -0.3586 C   0  0  0  0  0  0  0  0  0  0  0  0
   -2.2985   -4.8056    0.1826 C   0  0  0  0  0  0  0  0  0  0  0  0
   -3.4479   -4.0524    0.3881 C   0  0  0  0  0  0  0  0  0  0  0  0
   -3.4668   -2.6908    0.0723 C   0  0  0  0  0  0  0  0  0  0  0  0
   -0.2304   -2.0396   -1.2688 N   0  0  0  0  0  0  0  0  0  0  0  0
    1.0078   -2.5303   -1.8415 C   0  0  0  0  0  0  0  0  0  0  0  0
    3.4553    1.5623   -0.8775 C   0  0  0  0  0  0  0  0  0  0  0  0
    3.6106    2.4489    0.1998 C   0  0  0  0  0  0  0  0  0  0  0  0
    4.7453    2.3924    1.0154 C   0  0  0  0  0  0  0  0  0  0  0  0
    5.7407    1.4416    0.7682 C   0  0  0  0  0  0  0  0  0  0  0  0
    5.5910    0.5472   -0.2970 C   0  0  0  0  0  0  0  0  0  0  0  0
    4.4560    0.6046   -1.1106 C   0  0  0  0  0  0  0  0  0  0  0  0
    6.9609    1.3406    1.6045 C   0  0  0  0  0  0  0  0  0  0  0  0
    6.9967    2.2545    2.5899 O   0  0  0  0  0  0  0  0  0  0  0  0
    7.8602    0.5340    1.4561 O   0  0  0  0  0  0  0  0  0  0  0  0
    1.6310    1.9302   -3.8186 H   0  0  0  0  0  0  0  0  0  0  0  0
    3.2080    2.6105   -3.3987 H   0  0  0  0  0  0  0  0  0  0  0  0
    3.0147    0.8617   -3.6192 H   0  0  0  0  0  0  0  0  0  0  0  0
    1.6154    2.5108   -1.4449 H   0  0  0  0  0  0  0  0  0  0  0  0
    1.6455   -0.1166   -0.6814 H   0  0  0  0  0  0  0  0  0  0  0  0
   -2.4779    1.1350   -1.4260 H   0  0  0  0  0  0  0  0  0  0  0  0
   -4.6127    2.2229   -1.1258 H   0  0  0  0  0  0  0  0  0  0  0  0
   -6.1542    3.1018    0.5847 H   0  0  0  0  0  0  0  0  0  0  0  0
   -6.0749    2.2411    2.9012 H   0  0  0  0  0  0  0  0  0  0  0  0
   -2.8467   -0.3889    1.8026 H   0  0  0  0  0  0  0  0  0  0  0  0
   -0.2648   -4.8320   -0.5317 H   0  0  0  0  0  0  0  0  0  0  0  0
   -2.2981   -5.8639    0.4331 H   0  0  0  0  0  0  0  0  0  0  0  0
   -4.3406   -4.5212    0.7941 H   0  0  0  0  0  0  0  0  0  0  0  0
   -4.3749   -2.1139    0.2224 H   0  0  0  0  0  0  0  0  0  0  0  0
    0.8758   -3.5631   -2.1723 H   0  0  0  0  0  0  0  0  0  0  0  0
    1.2727   -1.9270   -2.7130 H   0  0  0  0  0  0  0  0  0  0  0  0
    1.7838   -2.4738   -1.0747 H   0  0  0  0  0  0  0  0  0  0  0  0
    2.8464    3.1944    0.4151 H   0  0  0  0  0  0  0  0  0  0  0  0
    4.8403    3.0941    1.8410 H   0  0  0  0  0  0  0  0  0  0  0  0
    6.3583   -0.1986   -0.4976 H   0  0  0  0  0  0  0  0  0  0  0  0
    4.3611   -0.1067   -1.9283 H   0  0  0  0  0  0  0  0  0  0  0  0
    7.8423    2.0714    3.0502 H   0  0  0  0  0  0  0  0  0  0  0  0
  1  2  1  0
  2  3  1  0
  3  4  1  0
  4  5  2  0
  4  6  1  0
  6  7  2  0
  7  8  1  0
  8  9  1  0
  9 10  2  0
 10 11  1  0
 11 12  2  0
 12 13  1  0
 13 14  2  0
 13 15  1  0
 15 16  1  0
 15 17  1  0
 15 18  1  0
  7 19  1  0
 19 20  1  0
 20 21  2  0
 21 22  1  0
 22 23  2  0
 23 24  1  0
 20 25  1  0
 25 26  1  0
  2 27  1  0
 27 28  2  0
 28 29  1  0
 29 30  2  0
 30 31  1  0
 31 32  2  0
 30 33  1  0
 33 34  1  0
 33 35  2  0
 25  6  1  0
 32 27  1  0
 14  9  1  0
 24 19  2  0
  1 36  1  0
  1 37  1  0
  1 38  1  0
  2 39  1  1
  3 40  1  0
  8 41  1  0
 10 42  1  0
 11 43  1  0
 12 44  1  0
 14 45  1  0
 21 46  1  0
 22 47  1  0
 23 48  1  0
 24 49  1  0
 26 50  1  0
 26 51  1  0
 26 52  1  0
 28 53  1  0
 29 54  1  0
 31 55  1  0
 32 56  1  0
 34 57  1  0
M  END
$$$$
