
     RDKit          3D

 54 57  0  0  0  0  0  0  0  0999 V2000
    2.0497    1.6511    2.1300 C   0  0  0  0  0  0  0  0  0  0  0  0
    2.3114    1.4770    0.6309 C   0  0  2  0  0  0  0  0  0  0  0  0
    1.2705    0.6757    0.0122 N   0  0  0  0  0  0  0  0  0  0  0  0
    0.0471    1.2074   -0.3233 C   0  0  0  0  0  0  0  0  0  0  0  0
   -0.2194    2.3947   -0.1575 O   0  0  0  0  0  0  0  0  0  0  0  0
   -0.9181    0.2445   -0.8142 C   0  0  0  0  0  0  0  0  0  0  0  0
   -2.2785    0.2358   -0.5436 C   0  0  0  0  0  0  0  0  0  0  0  0
   -2.8913    1.1987    0.1937 N   0  0  0  0  0  0  0  0  0  0  0  0
   -3.8796    1.0914    1.1987 C   0  0  0  0  0  0  0  0  0  0  0  0
   -4.2215   -0.1210    1.8106 C   0  0  0  0  0  0  0  0  0  0  0  0
   -5.2374   -0.1841    2.7698 C   0  0  0  0  0  0  0  0  0  0  0  0
   -5.9332    0.9695    3.1245 C   0  0  0  0  0  0  0  0  0  0  0  0
   -5.6074    2.1789    2.5171 C   0  0  0  0  0  0  0  0  0  0  0  0
   -6.4702    3.6067    2.9447 Cl  0  0  0  0  0  0  0  0  0  0  0  0
   -4.5929    2.2436    1.5614 C   0  0  0  0  0  0  0  0  0  0  0  0
   -2.8688   -0.8844   -1.1987 C   0  0  0  0  0  0  0  0  0  0  0  0
   -1.8374   -1.5583   -1.8567 C   0  0  0  0  0  0  0  0  0  0  0  0
   -2.0661   -2.7382   -2.5875 C   0  0  0  0  0  0  0  0  0  0  0  0
   -3.3720   -3.2258   -2.6686 C   0  0  0  0  0  0  0  0  0  0  0  0
   -4.4211   -2.5530   -2.0572 C   0  0  0  0  0  0  0  0  0  0  0  0
   -4.1839   -1.3818   -1.3302 C   0  0  0  0  0  0  0  0  0  0  0  0
   -0.6829   -0.8204   -1.6646 N   0  0  0  0  0  0  0  0  0  0  0  0
    0.5602   -1.0809   -2.3663 C   0  0  0  0  0  0  0  0  0  0  0  0
    3.6596    0.8572    0.3006 C   0  0  0  0  0  0  0  0  0  0  0  0
    4.3346    1.2747   -0.8603 C   0  0  0  0  0  0  0  0  0  0  0  0
    5.5621    0.7122   -1.2230 C   0  0  0  0  0  0  0  0  0  0  0  0
    6.1305   -0.2914   -0.4349 C   0  0  0  0  0  0  0  0  0  0  0  0
    5.4632   -0.7258    0.7155 C   0  0  0  0  0  0  0  0  0  0  0  0
    4.2370   -0.1592    1.0779 C   0  0  0  0  0  0  0  0  0  0  0  0
    7.4299   -0.9201   -0.7731 C   0  0  0  0  0  0  0  0  0  0  0  0
    7.9874   -0.4045   -1.8821 O   0  0  0  0  0  0  0  0  0  0  0  0
    7.9763   -1.8076   -0.1441 O   0  0  0  0  0  0  0  0  0  0  0  0
    1.9206    0.6895    2.6392 H   0  0  0  0  0  0  0  0  0  0  0  0
    1.1299    2.2236    2.2971 H   0  0  0  0  0  0  0  0  0  0  0  0
    2.8720    2.1881    2.6154 H   0  0  0  0  0  0  0  0  0  0  0  0
    2.2773    2.4821    0.1887 H   0  0  0  0  0  0  0  0  0  0  0  0
    1.3358   -0.3267    0.1173 H   0  0  0  0  0  0  0  0  0  0  0  0
   -2.3712    2.0739    0.3068 H   0  0  0  0  0  0  0  0  0  0  0  0
   -3.6844   -1.0330    1.5613 H   0  0  0  0  0  0  0  0  0  0  0  0
   -5.4827   -1.1347    3.2368 H   0  0  0  0  0  0  0  0  0  0  0  0
   -6.7242    0.9181    3.8670 H   0  0  0  0  0  0  0  0  0  0  0  0
   -4.3628    3.1925    1.0851 H   0  0  0  0  0  0  0  0  0  0  0  0
   -1.2598   -3.2641   -3.0866 H   0  0  0  0  0  0  0  0  0  0  0  0
   -3.5710   -4.1342   -3.2331 H   0  0  0  0  0  0  0  0  0  0  0  0
   -5.4344   -2.9324   -2.1468 H   0  0  0  0  0  0  0  0  0  0  0  0
   -5.0136   -0.8538   -0.8700 H   0  0  0  0  0  0  0  0  0  0  0  0
    1.1020   -0.1443   -2.5186 H   0  0  0  0  0  0  0  0  0  0  0  0
    1.1488   -1.7821   -1.7680 H   0  0  0  0  0  0  0  0  0  0  0  0
    0.3418   -1.5046   -3.3487 H   0  0  0  0  0  0  0  0  0  0  0  0
    3.9017    2.0482   -1.4941 H   0  0  0  0  0  0  0  0  0  0  0  0
    6.0631    1.0632   -2.1210 H   0  0  0  0  0  0  0  0  0  0  0  0
    5.8946   -1.5085    1.3370 H   0  0  0  0  0  0  0  0  0  0  0  0
    3.7467   -0.5285    1.9764 H   0  0  0  0  0  0  0  0  0  0  0  0
    8.8320   -0.8949   -1.9750 H   0  0  0  0  0  0  0  0  0  0  0  0
  1  2  1  0
  2  3  1  0
  3  4  1  0
  4  5  2  0
  4  6  1  0
  6  7  2  0
  7  8  1  0
  8  9  1  0
  9 10  2  0
 10 11  1  0
 11 12  2  0
 12 13  1  0
 13 14  1  0
 13 15  2  0
  7 16  1  0
 16 17  1  0
 17 18  2  0
 18 19  1  0
 19 20  2  0
 20 21  1  0
 17 22  1  0
 22 23  1  0
  2 24  1  0
 24 25  2  0
 25 26  1  0
 26 27  2  0
 27 28  1  0
 28 29  2  0
 27 30  1  0
 30 31  1  0
 30 32  2  0
 22  6  1  0
 29 24  1  0
 15  9  1  0
 21 16  2  0
  1 33  1  0
  1 34  1  0
  1 35  1  0
  2 36  1  6
  3 37  1  0
  8 38  1  0
 10 39  1  0
 11 40  1  0
 12 41  1  0
 15 42  1  0
 18 43  1  0
 19 44  1  0
 20 45  1  0
 21 46  1  0
 23 47  1  0
 23 48  1  0
 23 49  1  0
 25 50  1  0
 26 51  1  0
 28 52  1  0
 29 53  1  0
 31 54  1  0
M  END
$$$$
